Version 4
SHEET 1 936 680
SYMBOL battery -144 96 R0
WINDOW 123 0 0 Left 2
WINDOW 3 24 38 Left 2
SYMATTR InstName V1
SYMATTR Value 9
SYMBOL res 64 -32 R0
SYMATTR InstName R1
SYMATTR Value 12k
SYMBOL res 64 144 R0
SYMATTR InstName R2
SYMATTR Value 50k
SYMBOL res 320 176 R0
SYMATTR InstName R3
SYMATTR Value 162
SYMBOL npn 272 48 R0
SYMATTR InstName Q1
SYMATTR Value 2N2222
SYMBOL LED 320 304 R0
SYMATTR InstName D1
TEXT 8 424 Left 2 !.lib LTSpice/WP710A10QBC.SP3
